%chk=checkpoint.chk
%nprocshared=16
%mem=60GB
# wB97XD/6-31+G(d,p) ! ASE formatted method and basis
# nosymm ! 
# Int=UltraFine ! This is default in G16, but here if calcs are run on other Gaussian. This splits the intergration grid into very tiny pieces (99,590 grid points).
# maxdisk=2TB scf=(xqc,maxcycle=512)
# output=(MatrixElement)

Gaussian input prepared by ASE: Reorganisation Energy Job

0 1
O		1.80172602 		0.06746038 		0.00000000
H		2.76172599 		0.06770148 		0.00000000
H		1.48149872		0.97247667 		0.00000000

matrix_data.dat


